[TITLE]


[JUNCTIONS]
;ID              	Elev        	Demand      	Pattern
 Junct_10        	30          	0           	                	;
 Junct_20        	30          	0           	                	;
 Junct_30        	117.7       	0           	                	;
 Junct_40        	117.7       	0           	                	;
 PE_Tocha        	80          	1.5           	Pattern_PE_Tocha	;
 Junct_50        	55          	0           	                	;
 Junct_60        	30          	0           	                	;
 Junct_70        	30          	0           	                	;
 Junct_80        	36          	0           	                	;
 Junct_90        	94.2        	0           	                	;
 Junct_100       	94.2        	0           	                	;
 PE_Mira         	56          	3           	Pattern_PE_Mira 	;
 Junct_110       	30          	0           	                	;
 Junct_120       	30          	0           	                	;
 Junct_140       	109.5       	0           	                	;
 Junct_150       	109.5       	0           	                	;
 PE_Fontinha     	92          	1.2           	Pattern_PE_Fontinha	;
 Junct_160       	30          	0           	                	;
 Junct_170       	30          	0           	                	;
 Junct_180       	125.8       	0           	                	;
 Junct_190       	125.8       	0           	                	;
 PE_Lemede       	108         	1.5           	Pattern_PE_Lemede	;

[RESERVOIRS]
;ID              	Head        	Pattern
 Reser_10        	33          	                	;

[TANKS]
;ID              	Elevation   	InitLevel   	MinLevel    	MaxLevel    	Diameter    	MinVol      	VolCurve
 R_Tocha         	84.92       	2               1.35             4.3          	9.19        	0           	                	;
 R_Mira          	61          	2               1.24             3.9          	7.07        	0           	                	;
 R_Fontinha      	97          	2               1.71             5.4          	14.2        	0           	                	;
 R_Lemede        	113.8       	2               1.67             3.5          	29.4        	0           	                	;

[PIPES]
;ID              	Node1           	Node2           	Length      	Diameter    	Roughness   	MinorLoss   	Status
 Pipe_10         	Reser_10        	Junct_10        	1           	150         	0.3         	0           	Open  	;
 Pipe_30         	Junct_40        	R_Tocha         	0.001       	1000        	0.3         	0           	Open  	;
 Pipe_40         	R_Tocha         	PE_Tocha        	1           	150         	0.3         	0           	Open  	;
 Pipe_50         	Junct_20        	Junct_50        	3602        	250         	0.3         	0           	Open  	;
 Pipe_60         	Junct_50        	Junct_30        	3036        	200         	0.3         	0           	Open  	;
 Pipe_70         	Junct_70        	Junct_80        	188.6       	150         	0.3         	0           	Open  	;
 Pipe_80         	Junct_80        	Junct_90        	2498.4      	250         	0.3         	0           	Open  	;
 Pipe_90         	Junct_100       	R_Mira          	0.001       	1000        	0.3         	0           	Open  	;
 Pipe_100        	R_Mira          	PE_Mira         	1           	150         	0.3         	0           	Open  	;
 Pipe_110        	Reser_10        	Junct_60        	1           	150         	0.3         	0           	Open  	;
 Pipe_120        	Reser_10        	Junct_110       	1           	150         	0.3         	0           	Open  	;
 Pipe_130        	Junct_120       	Junct_140       	9561.89     	300         	0.3         	0           	Open  	;
 Pipe_140        	Junct_150       	R_Fontinha      	0.001       	1000        	0.3         	0           	Open  	;
 Pipe_150        	R_Fontinha      	PE_Fontinha     	1           	150         	0.3         	0           	Open  	;
 Pipe_160        	Reser_10        	Junct_160       	1           	150         	0.3         	0           	Open  	;
 Pipe_170        	Junct_170       	Junct_180       	8100.13     	500         	0.3         	0           	Open  	;
 Pipe_180        	Junct_190       	R_Lemede        	1           	150         	0.3         	0           	Open  	;
 Pipe_190        	R_Lemede        	PE_Lemede       	1           	150         	0.3         	0           	Open  	;

[PUMPS]
;ID              	Node1           	Node2           	Parameters
 B6N             	Junct_10        	Junct_20        	HEAD CurveB6N	;
 B9B10           	Junct_60        	Junct_70        	HEAD CurveB9B10	;
 B8              	Junct_110       	Junct_120       	HEAD CurveB8	;
 B4N             	Junct_160       	Junct_170       	HEAD CurveB4N	;

[VALVES]
;ID              	Node1           	Node2           	Diameter    	Type	Setting     	MinorLoss
 Val_10          	Junct_30        	Junct_40        	150         	PSV 	0           	0           	;
 Val_20          	Junct_90        	Junct_100       	150         	PSV 	0           	0           	;
 Val_30          	Junct_140       	Junct_150       	150         	PSV 	0           	0           	;
 Val_40          	Junct_180       	Junct_190       	150         	PSV 	0           	0           	;

[TAGS]

[DEMANDS]
;Junction        	Demand      	Pattern         	Category

[STATUS]
;ID              	Status/Setting

[PATTERNS]
;ID              	Multipliers
;
 Pattern_PE_Tocha	1
;
 Pattern_PE_Mira 	1
;
 Pattern_PE_Fontinha	1
;
 Pattern_PE_Lemede	1

[CURVES]
;ID              	X-Value     	Y-Value
;PUMP:
 CurveB6N        	113.7       	87.7
;PUMP:
 CurveB9B10      	113         	64.2
;PUMP:
 CurveB8         	138         	79.5
;PUMP:
 CurveB4N        	503         	95.8

[CONTROLS]


[RULES]

[ENERGY]
 Global Efficiency  	75
 Global Price       	0
 Demand Charge      	0

[EMITTERS]
;Junction        	Coefficient

[QUALITY]
;Node            	InitQual

[SOURCES]
;Node            	Type        	Quality     	Pattern

[REACTIONS]
;Type     	Pipe/Tank       	Coefficient


[REACTIONS]
 Order Bulk            	1
 Order Tank            	1
 Order Wall            	1
 Global Bulk           	0
 Global Wall           	0
 Limiting Potential    	0
 Roughness Correlation 	0

[MIXING]
;Tank            	Model

[TIMES]
 Duration           	24:00
 Hydraulic Timestep 	00:01
 Quality Timestep   	0:05
 Pattern Timestep   	00:15
 Pattern Start      	0:00
 Report Timestep    	00:15
 Report Start       	0:00
 Start ClockTime    	12 am
 Statistic          	None

[REPORT]
 Status             	No
 Summary            	No
 Page               	0

[OPTIONS]
 Units              	CMH
 Headloss           	D-W
 Specific Gravity   	1
 Viscosity          	1
 Trials             	500
 Accuracy           	0.001
 CHECKFREQ          	2
 MAXCHECK           	10
 DAMPLIMIT          	0
 Unbalanced         	Continue 10
 Pattern            	1
 Demand Multiplier  	1.0
 Emitter Exponent   	0.5
 Quality            	None mg/L
 Diffusivity        	1
 Tolerance          	0.01

[COORDINATES]
;Node            	X-Coord         	Y-Coord
 Junct_10        	-1133.97        	1951.48
 Junct_20        	-1133.97        	2626.58
 Junct_30        	-1228.90        	5094.94
 Junct_40        	-1250.00        	5717.30
 PE_Tocha        	-1271.10        	7500.00
 Junct_50        	-1197.26        	3850.21
 Junct_60        	2104.43         	1835.44
 Junct_70        	2041.14         	2447.26
 Junct_80        	1967.30         	3734.18
 Junct_90        	1977.85         	4915.61
 Junct_100       	1967.30         	5474.68
 PE_Mira         	2051.69         	7521.10
 Junct_110       	4024.26         	1751.05
 Junct_120       	4003.16         	2267.93
 Junct_140       	3876.58         	4789.03
 Junct_150       	3908.23         	5284.81
 PE_Fontinha     	3855.49         	7447.26
 Junct_160       	6007.38         	1782.70
 Junct_170       	5996.84         	2299.58
 Junct_180       	5986.29         	4673.00
 Junct_190       	5954.64         	5200.42
 PE_Lemede       	5965.19         	7394.51
 Reser_10        	3169.83         	981.01
 R_Tocha         	-1271.10        	6666.67
 R_Mira          	1977.85         	6582.28
 R_Fontinha      	3834.39         	6487.34
 R_Lemede        	5975.74         	6434.60

[VERTICES]
;Link            	X-Coord         	Y-Coord

[LABELS]
;X-Coord           Y-Coord          Label & Anchor Node

[BACKDROP]
 DIMENSIONS     	0.00            	0.00            	10000.00        	10000.00
 UNITS          	None
 FILE
 OFFSET         	0.00            	0.00

[END]
